#!/usr/bin/env python
import os
import sys
import json
from time import sleep
import reservation_monitor as monit


def load_config(filepath):
    with open(filepath) as fs:
        config = json.load(fs)
    return config


if __name__ == '__main__':
    if len(sys.argv) != 2:
        print "Please provide a configuration file!"
        sys.exit(1)
    conf_file = sys.argv[1]
    if not os.path.isfile(conf_file):
        print "The config file provided doesn't exist!"
        sys.exit(1)
    config = load_config(conf_file)
    sleep_time = int(config['monitor_interval'])
    # Turn this into a daemon...
    monit.init_cache()
    while True:
        monit.monitor(config['monitor_pages'],
                      config['email']['smtp_host'],
                      config['email']['smtp_port'],
                      config['email']['from'],
                      config['email']['passwd'],
                      config['email']['to'])
        sleep(sleep_time)
